LTspice 24.1.9 for Windows
Circuit: C:\Users\Pedro HSO\Documents\GitHub\Amp. Op. Project\Simulação\SIMULAÇÃO.net
Start Time: Sat Jun 27 12:35:22 2026
solver = Normal
Maximum thread count: 20
tnom = 27
temp = 27
method = trap
Instance "M1": Length shorter than recommended for a level 1 MOSFET.
Instance "M1": Width narrower than recommended for a level 1 MOSFET.
Instance "M2": Length shorter than recommended for a level 1 MOSFET.
Instance "M2": Width narrower than recommended for a level 1 MOSFET.
Instance "M3": Length shorter than recommended for a level 1 MOSFET.
Instance "M3": Width narrower than recommended for a level 1 MOSFET.
Instance "M4": Length shorter than recommended for a level 1 MOSFET.
Instance "M4": Width narrower than recommended for a level 1 MOSFET.
Instance "M5": Length shorter than recommended for a level 1 MOSFET.
Instance "M5": Width narrower than recommended for a level 1 MOSFET.
Instance "M6": Length shorter than recommended for a level 1 MOSFET.
Instance "M6": Width narrower than recommended for a level 1 MOSFET.
Instance "M7": Length shorter than recommended for a level 1 MOSFET.
Instance "M7": Width narrower than recommended for a level 1 MOSFET.
Instance "M8": Length shorter than recommended for a level 1 MOSFET.
Instance "M8": Width narrower than recommended for a level 1 MOSFET.
Instance "M9": Length shorter than recommended for a level 1 MOSFET.
Instance "M9": Width narrower than recommended for a level 1 MOSFET.
Direct Newton iteration for .op point succeeded.
Total elapsed time: 0.107 seconds.

Files loaded:
C:\Users\Pedro HSO\Documents\GitHub\Amp. Op. Project\Simulação\SIMULAÇÃO.net
C:\Users\Pedro HSO\AppData\Local\LTspice\lib\cmp\standard.mos

