LTspice 24.1.10 for Windows
Circuit: C:\Users\dope2\Documents\GitHub\Amp.-Op.-Project\Simulação\teste.net
Start Time: Tue Jun 30 11:51:15 2026
solver = Normal
Maximum thread count: 12
tnom = 27
temp = 27
method = trap
WARNING: Node nc_01 is floating.

Instance "x1:M1": Length shorter than recommended for a level 1 MOSFET.
Instance "x1:M1": Width narrower than recommended for a level 1 MOSFET.
Instance "x1:M2": Length shorter than recommended for a level 1 MOSFET.
Instance "x1:M2": Width narrower than recommended for a level 1 MOSFET.
Instance "x1:M3": Length shorter than recommended for a level 1 MOSFET.
Instance "x1:M3": Width narrower than recommended for a level 1 MOSFET.
Instance "x1:M4": Length shorter than recommended for a level 1 MOSFET.
Instance "x1:M4": Width narrower than recommended for a level 1 MOSFET.
Instance "x1:M5": Length shorter than recommended for a level 1 MOSFET.
Instance "x1:M5": Width narrower than recommended for a level 1 MOSFET.
Instance "x1:M6": Length shorter than recommended for a level 1 MOSFET.
Instance "x1:M6": Width narrower than recommended for a level 1 MOSFET.
Instance "x1:M7": Length shorter than recommended for a level 1 MOSFET.
Instance "x1:M7": Width narrower than recommended for a level 1 MOSFET.
Instance "x1:M8": Length shorter than recommended for a level 1 MOSFET.
Instance "x1:M8": Width narrower than recommended for a level 1 MOSFET.
Instance "x1:M9": Length shorter than recommended for a level 1 MOSFET.
Instance "x1:M9": Width narrower than recommended for a level 1 MOSFET.
Direct Newton iteration for .op point succeeded.
Total elapsed time: 0.112 seconds.

Files loaded:
C:\Users\dope2\Documents\GitHub\Amp.-Op.-Project\Simulação\teste.net
C:\Users\dope2\AppData\Local\LTspice\lib\cmp\standard.mos

