LTspice 24.1.9 for Windows
Circuit: C:\Users\Pedro HSO\Documents\GitHub\Amp. Op. Project\Simulação Final\inversor.net
Start Time: Thu Jul  9 23:06:41 2026
solver = Normal
Maximum thread count: 20
tnom = 27
temp = 27
method = trap
Instance "x1:M1": Length shorter than recommended for a level 1 MOSFET.
Instance "x1:M1": Width narrower than recommended for a level 1 MOSFET.
Instance "x1:M2": Length shorter than recommended for a level 1 MOSFET.
Instance "x1:M2": Width narrower than recommended for a level 1 MOSFET.
Instance "x1:M3": Length shorter than recommended for a level 1 MOSFET.
Instance "x1:M3": Width narrower than recommended for a level 1 MOSFET.
Instance "x1:M4": Length shorter than recommended for a level 1 MOSFET.
Instance "x1:M4": Width narrower than recommended for a level 1 MOSFET.
Instance "x1:M5": Length shorter than recommended for a level 1 MOSFET.
Instance "x1:M5": Width narrower than recommended for a level 1 MOSFET.
Instance "x1:M6": Length shorter than recommended for a level 1 MOSFET.
Instance "x1:M6": Width narrower than recommended for a level 1 MOSFET.
Instance "x1:M7": Length shorter than recommended for a level 1 MOSFET.
Instance "x1:M7": Width narrower than recommended for a level 1 MOSFET.
Instance "x1:M8": Length shorter than recommended for a level 1 MOSFET.
Instance "x1:M8": Width narrower than recommended for a level 1 MOSFET.
Instance "x1:M9": Length shorter than recommended for a level 1 MOSFET.
Instance "x1:M9": Width narrower than recommended for a level 1 MOSFET.
Direct Newton iteration for .op point succeeded.
Total elapsed time: 0.081 seconds.

Files loaded:
C:\Users\Pedro HSO\Documents\GitHub\Amp. Op. Project\Simulação Final\inversor.net
C:\Users\Pedro HSO\AppData\Local\LTspice\lib\cmp\standard.mos

